TION 13168375
NTHE 11234972
THER 10218035
THAT 8980536
OFTH 8132597
FTHE 8100836
THES 7717675
WITH 7627991
INTH 7261789
ATIO 7104943
OTHE 6900574
TTHE 6553056
DTHE 6470280
INGT 6461147
ETHE 6135216
SAND 5996705
STHE 5748611
HERE 5630500
THEC 5466071
MENT 4968019
THEM 4911484
RTHE 4862875
THEP 4458634
FROM 4361347
THIS 4344608
TING 4291641
THEI 4217321
NGTH 4162753
IONS 4045101
ANDT 4020364
ONTH 3976144
TOTH 3911094
EDTO 3886447
THEF 3873133
THEY 3809433
HAVE 3735139
EDTH 3699013
INGA 3675933
NDTH 3619148
THET 3597105
OULD 3545483
ORTH 3527649
EVER 3497988
THEN 3493040
IGHT 3484797
EAND 3469701
ATTH 3465933
THEB 3427984
OVER 3423259
DING 3292159
IONA 3238994
GTHE 3206535
FORT 3183884
THEA 3166891
RING 3085444
ALLY 3058124
ANDS 2964994
EFOR 2911043
INGS 2907686
EDIN 2898263
ANDA 2846852
THIN 2846753
OUGH 2836766
WERE 2833510
ERTH 2823153
YEAR 2760359
WILL 2730404
THEL 2685880
SAID 2672546
HEIR 2630839
NTER 2617394
ENTS 2616976
ECON 2602363
NING 2595587
COMP 2558839
TAND 2556578
SION 2544046
TIME 2541680
OUND 2540743
FORM 2531586
NAND 2512199
LAND 2500203
THEW 2495941
KING 2486033
PORT 2481535
YTHE 2479794
HTHE 2474333
HECO 2463161
ATED 2450352
ANDI 2435091
THED 2432283
INTE 2421896
HING 2415926
NGTO 2346029
SOME 2318831
THEE 2296331
ALSO 2272179
ENTI 2266151
ONAL 2251550
CTIO 2238788
MORE 2226699
ANCE 2222056
EWAS 2221574
STAT 2193875
SIDE 2178067
PART 2177409
THAN 2172227
STHA 2147392
EOFT 2146633
HESE 2140673
SARE 2136673
THEO 2122303
RAND 2121925
CENT 2100779
EDBY 2089468
THEG 2079308
PLAY 2076384
ENCE 2070719
HICH 2066009
SING 2058168
WHIC 2056153
CONT 2051639
EVEN 2044936
AFTE 2010597
FTER 2003476
WHEN 1998236
MBER 1995047
ESTO 1978644
INGI 1961244
ICAL 1957590
NDER 1950266
TIVE 1949528
PRES 1942885
COMM 1940274
INGO 1932406
ABOU 1931491
IONO 1920745
STAN 1918197
HEWA 1911604
ASTH 1910727
SFOR 1907495
IRST 1904773
INTO 1902177
ECOM 1898652
BOUT 1883527
ESTA 1871911
DENT 1867605
WORK 1861950
HATT 1855838
ABLE 1853875
OUNT 1851478
TOBE 1850003
REAT 1842708
INST 1834447
HEST 1826166
NDIN 1824758
DAND 1823795
ETHA 1820247
TERS 1819470
FIRS 1819270
WOUL 1816261
BEEN 1805388
THTH 1803360
ITHT 1802652
ESTH 1794688
HESA 1789360
SINT 1784676
ESAN 1784502
TURE 1774845
VERS 1761482
VERY 1752004
ONOF 1741624
TWAS 1737095
RETH 1732151
YAND 1728503
STER 1721754
COUN 1720141
THEH 1713125
LING 1706713
SOFT 1704206
FORE 1703219
ENTA 1699782
STOR 1697886
CONS 1692766
TATE 1684321
ITIO 1682234
ATHE 1679355
ITHA 1678384
ENTH 1674269
EARS 1674228
TEDT 1672432
ATES 1671091
HEFI 1669464
ERAL 1663096
ATER 1658140
ERIN 1647306
NATI 1646197
ERES 1646142
LIKE 1645573
RATI 1639591
EINT 1637991
NGIN 1629144
UTTH 1626574
ANDW 1617469
ROMT 1612822
REST 1611309
ESTI 1602216
UGHT 1598911
ERED 1592912
ANDC 1591317
ANDH 1584076
THOU 1575289
MTHE 1570742
ASON 1557925
ECTI 1554504
EMEN 1547678
ERAN 1542995
CALL 1542368
ERSA 1540494
WHAT 1537708
DINT 1534038
NTIN 1533224
WASA 1521114
LATE 1517775
EREA 1502648
ALLE 1498817
DFOR 1498486
CIAL 1496185
TOFT 1493341
UNDE 1492863
ERSI 1490158
ANDE 1489807
ENTO 1480948
ILLI 1474587
ERAT 1472424
ERSO 1462656
NFOR 1460850
RENT 1450481
ESIN 1448933
SERV 1448589
RATE 1446541
STRA 1442405
BECA 1441510
CHAN 1439212
MOST 1438813
ANDO 1434745
ANGE 1433384
JUST 1428351
ITIS 1428100
GAME 1413581
EARE 1406547
ICAN 1405493
BACK 1405245
RECO 1403742
OMTH 1397332
HEMA 1391989
VING 1386608
IDEN 1383820
IVER 1382092
HEPR 1379329
VENT 1378744
RESS 1376015
REAL 1373867
AREA 1371458
OINT 1369665
DTHA 1365459
STAR 1363805
HAND 1354970
EACH 1350272
ENTE 1343108
RIES 1335429
OPLE 1323708
EROF 1318205
COME 1317743
ANDP 1315447
AINS 1313653
EDAN 1309134
INES 1308946
EPRO 1307814
ISTH 1306902
EDON 1306416
THEU 1306228
FORA 1303370
ONLY 1303135
GAIN 1297562
ARTI 1296805
HERS 1296238
RESE 1296098
SWIT 1294553
INGF 1294255
SPEC 1293633
ANDM 1293038
EOPL 1292222
TTER 1290823
PEOP 1290562
THRE 1290472
DWIT 1289963
KNOW 1288808
ERST 1288580
INAL 1288381
EMBE 1283314
INAN 1282357
SINC 1279484
ACTI 1277906
STIN 1272931
LONG 1264155
AUSE 1263485
CAUS 1253323
VERA 1252583
ESOF 1250232
EREN 1249439
FFIC 1246165
INGH 1245879
LINE 1244889
VERT 1244237
THRO 1239338
ROUG 1236673
YING 1235516
EASO 1234486
ANDR 1231102
IONT 1226708
LLOW 1218687
URIN 1218178
ONAN 1217217
SWER 1216771
HIST 1212167
ROUN 1208483
CESS 1208310
BYTH 1205765
TAIN 1203509
ETHI 1202933
SCHO 1202417
LECT 1202081
ATIN 1200538
LAST 1199613
ONST 1199002
SNOT 1195698
YOUR 1194475
REAS 1192018
RICA 1185515
NGAN 1180633
CHAR 1178631
ESSI 1175244
HIGH 1170524
TORE 1169727
COND 1169174
MANY 1162938
IONI 1162499
TERT 1159942
ONTO 1157438
TFOR 1156596
TEAM 1156191
HEMO 1153252
CTOR 1153219
HATS 1152311
TAKE 1151598
EPAR 1146846
DERS 1145928
LATI 1145577
NAME 1145492
ORMA 1145460
ANDF 1143755
SEAS 1141342
CHOO 1140139
UNIT 1137054
HENE 1136900
OUTH 1136709
LLIN 1133017
TERA 1132451
FFER 1132285
HATI 1130043
EPLA 1129006
NOTH 1128390
WELL 1124457
ALLO 1123307
TIES 1117015
DONT 1114470
TERN 1113295
PROV 1111766
INGW 1111745
RACT 1111263
SEVE 1107565
ONSI 1107532
USIN 1103635
NESS 1101247
WHER 1093648
CHIN 1086159
LLED 1086147
ITWA 1085399
MAKE 1084610
INGC 1083696
ENDE 1082242
SSIO 1081298
AGAI 1080316
RESI 1080184
POIN 1078898
POLI 1077325
SIGN 1077199
EDWI 1073054
OWER 1072176
NTOF 1069820
OUTT 1066713
CTED 1065574
DOWN 1064961
MAND 1061275
EFIR 1060749
SHOW 1059043
EWIT 1057301
TATI 1055867
EPRE 1055185
STRI 1050277
ARGE 1049660
HOOL 1048757
OFFI 1046599
CREA 1046376
RFOR 1045762
ISTO 1043207
MPLE 1042473
HECA 1042403
ECAU 1041538
ANDB 1040570
TEST 1038285
ATTE 1037532
HELA 1037227
FERE 1036911
ATUR 1035140
LAYE 1035020
HERA 1034185
TURN 1030325
NTHA 1029560
SENT 1029164
RTHA 1028595
METH 1023960
LTHE 1023518
APPE 1023319
COUL 1022978
SECO 1022624
WAST 1021947
USED 1020459
EASE 1018866
EWOR 1017076
ILIT 1016662
ORET 1014721
NCLU 1014356
OUSE 1013530
ALTH 1013296
INED 1012296
UBLI 1010170
EAST 1010081
IOUS 1008946
OMPA 1008219
OPER 1006891
ERTO 1005645
ONTR 1005452
ANDD 1003476
HATH 1001520
HOWE 1000854
INCL 999134
OMET 998665
EING 997998
EVEL 994339
HEHA 993952
STRE 992953
PERS 991550
HETH 991522
BEIN 990614
SHIP 988418
TORY 986800
HOUG 986072
INCE 985675
NTOT 985616
HEWO 985283
TEDA 985062
HOSE 984347
AMER 983492
ESTE 983134
MAIN 982912
EDFO 982639
ISTE 978544
HEAR 977695
ECOU 977384
PUBL 977275
TINT 976998
INGP 976226
RMAN 975603
ESTR 975031
INGL 971985
CLUD 971923
LACE 970783
HEDE 965888
EARL 964297
INDI 962230
CATI 958962
NDED 958694
ERIC 958584
TTLE 955989
HOUS 954540
CAME 954135
LEAS 952946
ONIN 952752
ENER 950939
ONEO 948987
RSON 948659
READ 947103
HEIN 946407
GAND 944505
HROU 943587
WARD 941311
ESSE 940493
TERI 938496
LITY 937945
EATE 937864
HREE 937263
WING 935975
PLAC 934972
TART 934952
ESID 933920
EXPE 933792
FORC 932108
GROU 932038
HEAD 931609
CORD 931083
OWIN 930092
STOF 930023
HERI 929568
BEFO 929506
ISTI 926564
PLAN 925437
HILE 924953
HATW 924847
DURI 924442
SOUT 923939
TTHA 923833
ISHE 922312
WHIL 921043
DITI 920330
ESEN 919874
AMES 919873
ANDL 918600
RECE 918150
HOME 916835
EDAS 916610
LESS 915764
HISS 912143
NINT 911927
SFRO 911881
ODUC 910520
RODU 910277
MEAN 908002
CITY 906015
ENTT 905488
ERVI 904845
OING 903926
ARTE 903798
NEOF 902480
FINA 901889
ISTR 900560
ISCO 898284
ARCH 898233
ININ 896839
EALL 894740
ESAI 894501
HEBA 894451
WORL 893791
MING 891799
ASSE 890585
NMEN 890406
NTED 888714
NDRE 888517
WEVE 887299
INGE 887174
FOUR 886653
INGB 886547
ANIN 885369
ONSA 883984
HERO 883718
SHED 883116
ERFO 881627
TERE 878104
RIGH 877847
ILLE 874214
HEPA 871438
NERA 869691
SIST 869376
LEAD 869140
STRU 868622
HEDI 868517
ARDS 868032
ASED 867037
IVES 866924
ITED 866837
MARK 866238
ARLY 865234
ASSI 863503
MERI 863422
AREN 861675
ORLD 861177
BUTT 861155
INIS 857935
OURS 857791
ONCE 857035
MEDI 854628
ATIV 853230
TSAN 851747
ENIN 851357
NEED 851094
ARES 850611
ASIN 850136
ATCH 850058
MADE 847016
VERN 846808
ICAT 845339
STUD 843876
DEVE 843522
LLBE 843417
PECT 843412
REDI 842726
NALL 842196
EDIT 840952
HEAL 839490
BALL 837896
NNIN 837493
ULDB 837288
NGER 836784
HANG 836602
GREE 836348
NCES 835273
LLTH 834676
RDIN 834494
EART 834430
CTIV 834085
GOVE 832621
ERMA 832280
ELEC 832154
AMIL 829534
ESEA 829048
RIVE 827118
SCON 826453
LDBE 825826
INAT 823798
NTTO 823180
TILL 822687
ITHI 821434
ENTL 820661
ENTR 820028
GOOD 818735
AINT 817185
SETH 816841
TORS 816437
TWEE 814938
EMAN 813859
IONW 813535
OMIN 813476
TICA 812574
INGM 812460
ALLT 811759
DHIS 811139
TEDI 810869
VISI 810762
LION 810350
ETIM 810243
ERET 809649
SHOU 809516
ELEA 808794
TENT 808513
SHAV 807822
ORDE 806848
ERSE 806730
NDAN 805285
VETH 804375
NTRA 803278
ASTE 802441
HEIS 801178
RIEN 798453
AVET 798089
TERM 798088
ARRI 797482
ESPE 796481
GENE 794619
THEV 794492
OGRA 794344
TRAN 793747
COLL 792896
RSAN 791930
ELAT 791658
EREI 791414
ILLB 791012
MISS 790619
WANT 789032
VEST 788289
HEPO 787853
VIDE 787070
MONT 785313
HERT 780922
DTOT 780815
OWEV 780683
SITI 780488
HEBE 779293
RITI 779061
PERI 778764
OLLE 778560
SUPP 778517
COUR 775717
VICE 775699
HENA 774827
ECTE 773724
NTLY 773145
ENSE 772933
HEMI 770993
MPAN 770702
STIL 770686
ERIE 769815
SEOF 768175
LEAR 767830
SONT 767667
WEEK 766068
AKIN 765701
ECHA 764682
LISH 764499
BLIC 764417
ECOR 763055
ASBE 762447
TYOF 760948
NIST 760688
ISTA 760180
ONSO 759125
LOCA 758979
ITIE 758752
ETER 758521
NOFT 758122
AYIN 757940
UALL 757870
LIVE 757583
LOOK 757441
ITAL 756095
PROD 756038
ORME 754828
TANT 754818
THOS 754252
DIST 752794
IMES 751601
NDOF 751115
LYTH 750761
REDT 749433
ISIN 749328
SONA 748704
TOCO 748071
TORI 746197
REIN 746032
MEMB 745866
PECI 745611
REMA 745382
ARTO 744074
TSIN 743014
ISSI 742525
SEDT 741284
BOTH 740387
NSTA 740242
ERNA 739769
HINK 739742
SURE 738814
ERSH 738421
LETO 738365
TABL 738206
TOMA 737967
EHAS 737805
DIFF 737505
AYER 735828
TRAC 735394
ULAR 735297
BUIL 735108
STTH 735057
ANTS 733854
HATA 732912
RAIN 732821
NEDT 732566
LITI 732516
MATE 732508
LLIO 731449
YFOR 731341
HECH 731329
TALL 729176
EDAT 728973
ESSA 728671
TRIC 728513
SAME 728014
PERA 727806
GHTH 727642
ORDI 725616
BUTI 725177
TREA 724789
NHIS 724574
MUCH 724183
LIST 723535
ICES 723102
REVE 722117
MANA 721865
RANC 721603
OURT 720508
ONES 720283
EMOR 719542
MOVE 719363
TRAT 718681
SUCH 718280
ERCE 717595
TRAI 716028
BASE 714858
HEFO 714820
ARED 714432
NEVE 714087
TWIT 713369
ATOR 711887
GOIN 711292
TSOF 710558
SELF 710103
HENT 709802
RECT 708410
GREA 708363
NCET 707916
RENC 707316
CARE 706877
THAS 706509
STRO 705635
CHAS 704941
AAND 704810
OMAN 704728
VELO 704001
STED 703407
TSTH 702849
OUTO 702834
ENSI 702704
RSTO 702359
ERVE 701979
RINT 701951
NDCO 701759
EFRO 701096
ASAN 700718
ALLI 699950
TTIN 699899
INCO 699198
ESHO 699063
FAMI 698400
TSTO 698247
ANOT 698205
OFFE 698190
EMAI 697613
LASS 697204
EENT 697048
ETTE 696464
HISC 696400
WEST 696374
ALIT 696027
DBYT 695948
HOUL 695509
ACCO 695208
NGOF 694856
OMPL 694572
RTER 692713
HISP 692441
TOGE 692377
NEAR 691815
SIVE 691197
TEND 690309
INGD 689798
RTED 689287
YSTE 688393
GIVE 688253
HETO 688136
ALON 687872
GEST 687831
ISIO 687715
EATH 687274
OWTH 687169
CETH 687142
RANS 686028
NTRO 685530
TEDB 685496
EDHI 685448
CEOF 685271
DINA 684943
AINE 684513
SCOM 684219
ISNO 683973
EFIN 683749
HELP 683380
ETOT 682693
RDER 682581
AVEA 682487
ORTA 682305
RESP 682065
ILLA 681450
SOCI 680245
INDE 679690
INGR 678824
RTOF 678406
FOUN 678236
ITHO 677669
ENTU 677586
HASB 677399
SSIN 676913
NDIT 676584
SHES 675771
ROMA 675502
DNOT 675469
OGET 675232
HISF 675038
IELD 674589
NDSO 674425
DOES 674349
RIST 673820
EUNI 673148
CHIL 673123
ROVE 672544
IESA 672491
NTTH 671847
RSIN 671269
ONSE 671204
SPRO 670834
EREC 670354
SBEE 669930
MILL 668898
LYIN 668062
PPOR 668025
NTSA 667533
STON 666435
HEME 665834
ERRE 665678
JECT 665674
NWAS 665603
OMES 665537
ROFT 665504
ORES 665184
USTR 664907
SALS 664813
URES 664335
ARIN 664047
OLIC 663033
TMEN 662993
ECAM 662562
ROVI 662359
MINI 662322
ETWE 662278
RELA 662015
HESO 661759
NGFO 661337
EIGH 661249
NSTR 660898
HEUN 660673
SONS 659537
CATE 659234
ESER 657537
DUCT 657034
HEEN 656630
EYOU 656545
ASTO 656479
NORT 656235
LDIN 655806
ALAN 655785
LIFE 655334
SSES 655053
HELE 654479
ERSW 654431
HISW 654125
BLET 654021
ALLA 653208
STIC 652763
RALL 652414
MUNI 652270
NTHI 652141
MATI 651722
ONTI 650736
STOP 650514
ITYO 650393
OPEN 650155
ARKE 648697
PERC 648243
EATT 647683
ISON 647451
ITIC 646549
NSAN 646104
CHES 645447
DEDT 645362
ALIN 644376
MALL 644138
ASTA 644037
ORCE 643310
UEST 642113
LOWE 641632
WEEN 640619
TRUC 640382
ANTH 640196
HASA 639774
IDER 639593
AKES 639553
ITTE 639330
ACHE 638921
IVED 638877
STEM 638623
DEFE 638159
DERA 637452
VEBE 637396
ULAT 637394
REPO 637338
ENAT 636759
ESAR 635982
IFIC 635759
DAYS 635317
POSI 634278
IREC 633394
UMBE 632936
RNIN 632864
UNTI 631961
NDON 631437
CONC 631326
STOT 631222
EPOR 631002
ORAN 630606
BECO 630597
ESSO 630148
ERNM 629840
ARET 629777
TUAL 629662
RNED 629486
OMEO 629033
ENEW 628934
ANTI 628801
NDST 627935
LARG 627836
ESAM 627649
OSIT 627046
OLLO 626894
UCHA 626348
EALS 626307
BERS 626197
PROG 626017
ARTH 625984
OREA 625586
ANDN 625272
PING 625193
RELE 625131
PROB 624899
ALLS 624816
ALRE 624686
TTHI 624455
CONF 624044
RSOF 624021
INIT 623717
ROGR 623505
ERCO 623389
BETW 623197
OFHI 623129
ANDG 622983
ROAD 621871
EHAD 621626
NTAN 620660
RSTA 620558
HISI 620556
TONE 620524
CHED 619847
SONE 619810
FACT 619149
HEFA 618465
GFOR 617512
PASS 616913
NGWI 616865
NATE 616254
WASS 615133
ATEA 614770
MINA 613582
EWHO 612266
HILD 612146
SINE 611815
ELIN 610829
HETE 610582
DFRO 610220
COVE 609431
ROPE 609361
SHIN 609328
AROU 608136
URRE 607758
ELLI 607612
IBLE 607595
TIST 607242
ESEC 606818
RESU 606718
NGON 606646
SEAR 606266
NWIT 606036
DISC 604649
EBEE 604459
ROUP 603458
EALT 603434
PROP 603355
ISSU 602442
ETUR 602388
ECEN 601985
SWHO 601020
LIGH 600834
POWE 600424
ESPO 600419
RNME 600358
UPPO 599898
NTEN 599546
UCTI 599295
LOSE 598757
AVEB 598365
TIAL 596712
HESU 596262
EQUI 596037
REAR 595955
AVER 595740
CANT 595734
LEAN 594971
UTIO 594951
HETR 594740
TOWN 594473
DIDN 593387
SERI 593049
NEXT 592494
PPEA 592321
ORAT 592082
ITIN 591988
ACHI 591971
HELO 591813
ONIS 591787
ISTS 591520
INFO 591389
NDAR 591119
PEAR 590608
FICE 590105
STEA 590051
HEGR 589612
BILI 588945
ANAN 588788
EYEA 588737
PLET 588464
RTIC 588292
ENOT 588007
LEDT 587934
YINT 587681
TETH 587491
GING 587248
IENC 587052
ETRA 586801
LETH 586799
RAGE 586568
ICIA 586179
ALCO 586084
KETH 585491
GRAM 585066
ORTS 584799
EDIS 584693
OCAL 584293
FIEL 584146
RVIC 583992
ATHA 583331
DIRE 583326
OTHI 583095
BEST 582850
NAGE 582488
PARE 581953
UNTR 581171
PEND 580659
MMUN 580335
DONE 579803
OFCO 579718
UNDA 579570
HOUT 579538
OSTA 579513
ELOP 578952
ESST 578803
ORIT 578716
SSED 577989
ORTE 576910
FECT 576759
OLOG 576343
TELY 575294
HESI 574677
ANTA 574381
LICA 574292
NUMB 574257
OACH 573934
ECTO 573930
AINI 573839
NSIN 573485
HALL 573402
SHAR 573401
OSTO 573328
ORED 573032
UTOF 572999
ECAN 572035
CAND 571919
OMMU 571858
IFFE 571656
BAND 571424
ESON 571412
SYST 571183
NGRE 570944
EREW 570711
SHER 570625
ANYO 570528
VETO 570047
PERF 569951
CLOS 569890
NSID 569775
REDA 569674
ALIS 569344
HARD 569303
GHTS 568865
EENA 568706
ORIN 568697
VIEW 568655
ATEL 568240
FICI 567700
REQU 567670
PRIN 567537
NTST 567342
ENAN 567105
FOLL 567082
IEVE 566924
REAC 566680
TTEN 566545
RADI 566500
NALS 566462
REAN 565691
HEBO 565620
WAYS 565425
NCEA 564788
DSTA 564211
HEHO 564144
NSOF 563939
IENT 563922
ITHE 563905
SCOR 563904
ROWN 563784
ETWO 563585
CCES 563519
RITY 563421
EADE 563256
TUDE 563022
NIVE 563016
IFTH 562843
REME 562827
IEST 562487
EMON 561904
NGST 561479
FORS 561212
ESHA 560524
YOFT 560370
NCOM 560027
OMEN 559905
EOFF 559675
ANAG 559387
ENDI 559243
NERS 559193
YTHI 559128
REPR 559125
ESIG 558994
HEYA 558933
EMIN 558676
TEMP 558667
HESH 558175
VERE 557923
WASN 557705
NDHE 557190
HELI 556179
HEDA 555765
CEAN 555629
ONSH 555546
RCEN 555338
SWAS 555050
TOSE 554963
NIGH 554392
DUCE 553705
EWER 553067
TCHE 552869
RSIT 552795
RTIN 552337
TERR 551842
NDIS 551715
EWIL 551437
LDRE 551140
DOFT 550746
ESHE 550355
ELIE 550056
RENO 549584
ETIN 549509
TOTA 549154
ADIN 549064
SPLA 548707
RESO 548605
FHIS 547901
ERHA 547666
ELLA 546545
NCER 546117
NITY 545918
ATIS 545537
TEVE 544490
ASAL 544331
IDTH 544076
NSTO 543965
RSTH 543636
NOWN 543028
FORD 542828
SWHI 542306
ISIS 541764
ECIA 541640
ISLA 541487
DERT 541302
ERIO 541138
HEYW 540174
NGLE 540045
GWIT 540000
IRED 539950
CURR 539137
ERTA 538776
EDST 538088
TAGE 537994
GETH 537681
IONF 537442
ERIS 537240
LOVE 537217
ILLS 536888
NDMA 536761
ENDO 536269
AYTH 536097
NDTO 536014
HISA 535943
CEPT 535713
ASSO 535629
LEVE 535272
LLEG 535019
RREN 534819
AGES 534450
EMAR 533305
YARE 533257
REIS 532761
CLEA 532657
ASHI 532488
IVIN 532298
NGHI 532287
REET 532212
DTOB 532193
STIM 532120
DWAS 531932
EPER 531835
FORH 531791
FREE 531469
NTRY 531110
NCON 530864
BERO 530355
FIND 530305
AMET 529910
AIDT 529826
OFIN 529661
SWIL 529353
RCHA 528811
EONE 528428
TEDS 528390
AVIN 527360
EQUE 527196
EDFR 526567
LUDE 526495
SITY 526321
CANA 525249
NITE 524689
FALL 524680
REEN 524503
GETT 524210
RMIN 524099
RYIN 524040
CLAS 524035
EBUT 523892
HEGA 523693
TRAD 523663
ONTA 523656
LEFT 523517
NDHA 523320
EDUC 523189
QUES 522944
SPAR 522859
NEWS 521403
OURC 521399
ANTT 521104
INGU 520925
ONTE 520524
OUTS 520420
MEOF 520300
ADER 519703
HENO 519640
HETI 519585
AMON 519562
DESI 519524
SAYS 519296
UNIV 519057
EISA 518892
NSTH 518306
LEOF 517776
DEST 517552
NISH 517015
RKIN 516113
ICUL 516044
SPRE 515944
URNE 515797
ESWI 515421
METO 515255
ENDS 515058
UILD 514896
TINU 514258
TWOR 514110
EARN 514075
UTHE 513889
OLIT 513656
RIAL 513480
YERS 513394
SBUT 513296
INVE 513235
MONE 513058
CTUR 512680
YONE 512476
FULL 512471
BOOK 512465
THAV 512376
INTS 512073
KAND 512048
EEND 511759
RONT 511369
EREP 511219
NCED 510412
REOF 510357
EGAM 509288
IATE 509208
OVED 508551
FEAT 508275
OPUL 508217
IALS 507957
RTAN 507655
NOTA 507131
RUCT 507127
ONEY 506971
ERMI 506812
BUSI 506684
HISM 506671
ANBE 506475
HEPL 506031
ARAN 505851
NCRE 505375
ASRE 505246
OFTE 504534
REGI 504428
ITHH 503780
HATC 503721
INNI 503690
MILY 503609
NTIL 502685
PULA 502347
NITI 502290
RMAT 502221
ISAN 502016
ANTE 501811
DIVI 501698
KILL 501202
RETU 499787
NTON 499737
IALL 499643
POSE 499635
PTIO 499235
OUTA 499056
NDWA 498491
EWHE 498473
ERWA 498093
ELAN 497944
ASWE 497160
WTHE 497101
EARC 496535
ATTA 496479
HENI 496316
CAMP 496059
NTAL 495906
TYEA 495630
CULT 495548
GINA 495097
DOUT 494824
ANSA 494782
ROSS 494729
ONOM 494622
ATET 494412
HEAT 494230
CIDE 494226
LEGE 494103
SHOR 494004
ITSA 493655
EGRE 493541
CKIN 493354
WRIT 493131
TELL 493083
ERWH 493001
TOFI 492945
IANS 492642
STHI 492486
OCIA 492335
DECI 492308
BILL 492217
INHI 491946
SULT 491862
LICE 491549
SITE 491224
TERO 490857
URCH 490218
ESTS 490159
NDEN 490086
CROS 490074
INNE 489627
SPER 489501
ONFO 489462
NDSA 488934
NOVE 488807
ICHA 488762
HADA 488428
OHAV 488363
ISSE 488328
PANY 488193
GTHA 488170
SIBL 488087
UDEN 487921
RANT 487555
BELI 486771
SOFA 486734
EMOS 486629
ESFO 486584
EHAV 486275
NSHI 486088
THEK 486061
BERT 485814
ICHI 485709
ACKS 485462
YTHA 485227
ASTR 485054
FRIE 484994
SWEL 484692
NCEO 484348
OUNC 483991
GHTE 483861
RELI 483763
GEOF 483258
GINT 483227
TECH 483109
TCOM 483058
ESCO 483006
ANCI 482378
UDIN 482358
AGRE 482151
POPU 482087
ESOU 481689
ENTW 480885
QUAR 480877
ECRE 480393
ONDE 479782
TOHA 479528
NGCO 479200
EREM 479070
STOC 479067
MODE 478843
DCON 478565
RKET 478032
HEGO 477980
TOUR 477493
SPON 476992
LEST 476691
ISAL 476616
JOHN 476608
SMAL 476460
ISRE 476190
WATE 476168
SINA 476097
REVI 475930
RNAT 475915
LACK 475564
APPR 475155
ORGA 474976
DRIV 474922
TOPR 474920
DATE 474314
APER 473835
USET 473336
RADE 473167
TOFA 473038
REFO 472874
HEDO 472580
OMMI 472488
URSE 472455
CANB 472352
ANTO 472199
ANIS 472112
NWHI 472044
TROL 471945
LITT 471235
TYOU 469955
TREE 469818
EALI 469684
IDEA 469624
ECTS 469585
LEIN 469566
SCAN 469373
OWED 469207
AYED 469093
ROTE 468850
SWOR 468577
GANI 467582
ULDN 467562
SSTH 467440
OMME 467425
NTRE 467412
IMAT 467147
CASE 466666
NDHI 466285
SDAY 465986
GRAN 465927
MUSI 465874
USES 465785
OTHA 465664
LUDI 465363
URTH 465011
EARA 464953
OWNA 464738
CING 464665
PTHE 464561
HESC 464430
OSED 464299
DICA 464274
AVES 464085
RYAN 463765
RANG 463408
THIR 462605
HAPP 462336
IONE 461817
KERS 461635
RIED 461573
LLEN 461122
EHIS 461011
RMER 460965
USEO 460785
YOUN 460777
USTO 460596
INDO 460003
ITHS 459537
ADDI 459494
FACE 459095
RGAN 458939
CEIV 458835
SUCC 458533
MILI 458475
EWHI 458356
HAST 458242
NFRO 457971
OVID 457929
URED 457321
EREL 457155
MPOR 456871
DHAV 456847
AMED 456624
CORE 456507
EDIA 456300
IEND 456256
EINS 456097
SOFF 456072
ORTO 456056
SLAT 455996
EFEN 455967
CONO 455953
EADI 455716
INCR 455678
HEPE 455289
SATT 455214
TARY 455186
ALWA 455073
OWNT 454499
ASNO 453566
PAND 453531
MMER 452757
ECUR 452476
SPEN 452185
NTAI 451695
OCAT 451691
NTIO 451664
SEDA 451645
ETOP 451534
SMAN 451409
TRON 451295
HOLD 450841
NDAL 450390
CEIN 450217
HONE 449816
NEDA 449787
SEST 449771
EHEA 449695
USIC 449515
AMEN 449424
SCRI 449399
UCCE 449326
SWHE 449061
ARSA 448724
ASHE 448599
LOWI 448429
TLEA 448166
HEUS 447883
HARE 447874
WASH 447597
SPIT 447392
WENT 447073
HEWE 446942
HEWI 446662
AWAY 446318
ANAL 446312
BLEM 446282
IMPO 445887
FYOU 445843
OSSI 445393
TICE 445315
LLER 445292
FINI 445278
IZED 445089
HATM 445074
FIVE 444490
LETE 444406
NDSE 444319
GERS 444264
AMEA 443941
SIMP 443391
CHER 443301
OFIT 443146
DERE 443007
ECEI 442689
DEMO 442597
BLIS 442522
NTUR 442264
NTIA 442256
EINC 442055
HESP 442013
ONGT 441999
PROF 441691
STIT 441528
ERWI 441302
KTHE 441240
ACTE 441222
NTRI 441129
TRIE 440902
ALES 440788
LTHO 440513
NTOA 440284
ONCO 439986
AREC 439656
AREE 439395
IONC 439152
EEVE 438898
EYAR 438387
PROC 438348
IDES 438016
EPUB 438005
TCON 437581
THEJ 437533
OESN 437331
EATI 437182
DHER 436824
FENS 436532
DOTH 436299
REMO 436144
SLIK 435959
ANNO 435797
IDED 435794
SCOU 435781
CIEN 435633
POSS 435545
ASSA 435367
NANC 435329
GHTT 435255
OPPO 435235
ITTL 434754
MAJO 434494
CONV 434361
SPOR 434067
EDIC 434015
AUGH 433471
AJOR 433429
TRAL 433392
NSTE 433020
HECI 432615
FRAN 432243
VILL 432223
STOB 432188
EOFA 432092
TOST 431835
WHOW 431825
DITS 431468
PPRO 431451
RONG 431187
YOUT 431078
PARK 431054
BETT 431046
EOTH 430847
DPRO 430725
OREC 430677
ELLE 430199
ITCH 429868
SHEW 429717
OFAN 429290
TITU 429235
EOUT 429191
SABO 429034
ASMA 428552
COMI 428403
ONNE 428324
XPER 428200
SSTA 428077
USTA 428070
PLEA 427991
ECIT 427796
UNDS 427629
ARTS 427208
ORKI 426969
UTIN 426091
ANNE 425889
TICI 425648
KEEP 425390
DREN 425007
TISA 424959
SHAD 424896
POST 424172
ERTI 424070
PARA 423685
RACE 423605
IVEN 423134
EPRI 422946
OURN 422546
BREA 422154
ICKE 422110
ASCO 421766
ONWI 421633
ONET 421487
ERNE 421211
ORSE 421044
ITYA 420752
LANT 420703
EIVE 420569
HERW 420536
NGAS 420451
HEBR 420202
ORRE 419542
OBLE 419425
ARAC 419346
PPED 419006
TERW 418933
RTHI 418931
OREI 418611
WASC 418583
ETIT 417985
TICS 417751
YWIT 417426
RMED 417230
DRES 416803
ISED 416477
TOOK 416444
ONED 416149
OCON 415326
SETO 415112
HEON 415079
SSUE 414888
HEOR 414857
TTOT 414689
YWAS 414439
RYTH 414375
ETTI 413915
HERC 413786
NOTE 413739
ELAS 413720
SHIS 413582
ESCH 413382
ULTI 413330
MSEL 413255
ORKE 413156
OMPE 413135
IONB 412818
CHAM 412603
RWAS 412562
QUIR 412508
ITYT 412387
ESWE 412323
ABIL 412049
ERAG 412006
TFRO 411932
HAVI 411867
LWAY 411207
ROCE 411113
CKED 410929
ETEA 410479
NCEI 410197
AVEN 410178
LOCK 410151
ORNI 410148
LYRE 410109
SOTH 410038
WASR 409708
CERT 409611
REFE 409212
CANS 409134
ONWA 408658
ERHE 408636
UTHO 408559
MEST 408334
OARD 408082
CHRI 407891
ITOR 407812
VERI 407719
TWIL 407658
FIRE 407467
NVES 407378
HRIS 407368
ETTH 406618
DSTO 406559
ONAT 406332
SEDO 406328
CULA 406313
PONS 406231
MEIN 406221
TODE 406219
AMIN 406214
BOAR 406173
RITE 405893
ASES 405640
EREF 405429
IVEA 405403
ERSC 405381
HORT 405368
NALI 405202
SSHO 405165
NETH 405032
NDFO 404972
TACK 404924
RERE 404615
DIAN 404489
RIAN 404320
TRIB 404176
ATIC 404114
TOHI 403993
TIRE 403984
ILDR 403935
ORMO 403807
NSON 403666
TEDF 403477
ISIT 403358
STOM 403340
INHE 403330
NOMI 403283
RCHI 403265
LIEV 403151
EWIN 403032
OUNG 402978
RIOU 402856
UNDT 402688
IKET 402553
EADY 402371
STAL 402188
OTTO 401923
ENED 401915
TPRO 401821
OBER 401811
IESO 401775
COST 401756
ANAD 401714
FFOR 401559
TONT 401512
NDAT 401357
CETO 401323
LLAS 401303
LENT 401038
OAND 400964
INEA 400733
DTOA 400271
HADT 400231
INSI 400129
ESIT 399777
UNTY 399709
LINT 399590
FFEC 399569
SFIR 399554
INUE 399494
AGUE 399414
ORTI 399413
ARDE 399347
EMPL 398885
SEEM 398866
MERS 398777
ESUL 398741
IMPL 398723
MITT 398557
TODO 398534
IDEO 398452
TEDO 398320
NTSO 398212
REHE 398141
LIES 398104
INDU 397863
RESA 397731
ASTI 397729
SEDI 397722
STEN 397612
FICA 397498
RRIE 397410
LLOF 397388
ONWH 397259
OWNS 397138
ACCE 397069
DSAN 396674
FTEN 396563
OPRO 396521
SSUC 396479
RWIT 396460
ATIT 396265
NSTI 396148
NCOU 395931
TANC 395823
SHEA 395798
IVEL 395516
AGEO 395436
TALI 395125
TODA 395002
NPRO 394922
DTOS 394643
ICLE 394588
ECAR 394151
EONT 394123
ETHR 393962
TOAN 393950
ACTU 393744
HANT 393728
ESWH 393689
LESA 393554
DETH 393521
ULDH 393176
OTAL 393165
WASI 392891
HIRD 392783
ERPR 392741
LLAN 392680
RETO 392364
ESNO 392271
NGAT 392154
DSOF 391866
ANST 391802
LEAG 391576
HITE 391574
STAB 391418
LDER 391402
ONEW 391250
LIAN 391250
RICE 391134
RICT 391099
AYBE 391023
EASI 391022
NOTT 390751
ENDA 390691
OWNE 390383
PANI 390345
THOR 390157
APPL 390116
GRAD 389973
YHAV 389753
OMAK 389749
DCOM 389512
DEAL 389332
INMA 389040
DISA 389011
REWA 388993
SECU 388987
EFER 388254
EARO 388232
INSO 388193
HARA 388069
ENTF 388062
IMPR 387321
SINS 387282
BANK 387277
EARI 387165
PROM 386873
ANEW 386816
HISB 386674
EONL 386413
NNER 386328
VICT 386323
IATI 386161
ONSU 385955
TITI 385720
ERBE 385697
EFOU 385207
MOUN 385169
NYOU 384963
HEBU 384914
OMEA 384909
FOOT 384773
RSHI 384687
NDUS 384259
NDPR 384026
DTHI 384020
SPRI 384002
SALL 383967
HERN 383854
CHIS 383646
HAMP 383267
NDLE 382966
BATT 382653
ILDI 382644
CAST 382574
PROT 382433
TSTA 382419
EUSE 382370
ALST 382236
ROBL 382207
ESCA 382047
GHTO 381889
RSAR 381737
TSHE 381687
MEET 381616
OCOM 381511
VOTE 381359
NGIT 381076
RSHA 381064
AWAR 380976
ADMI 380910
IVET 380749
COLO 380698
EAVE 380462
VARI 380285
BETH 380223
ACTO 380058
OSTE 379920
HISO 379759
NDAY 379714
EWOU 379565
EDOU 379383
TOHE 378743
SSIS 378629
NGSO 378143
CHTH 377969
HALF 377968
ATHI 377905
ORIG 377833
URAL 377805
OOKI 377690
EGRO 377688
LFOR 377653
TEIN 377584
MINE 377560
EDAL 377542
INAS 377483
TRES 377372
ARTY 377128
ALMO 376791
HEHE 376760
OLVE 376740
ERON 376740
HENH 376618
SOUR 376538
EGAN 376527
DENC 376311
RAVE 376218
LDHA 376206
FILM 375524
UNTE 375409
NENT 375393
DEAT 375267
PRIS 375185
EPEN 375047
GROW 374945
SSIB 374589
HERM 374209
SAPP 374193
TYAN 373941
NITS 373921
ENCO 373751
COAC 373622
SUND 373573
TTAC 373245
PAST 373192
AMPL 372943
ISHA 372745
ACOM 372613
UTIT 372341
ARDI 372305
NDIA 372182
EANS 372174
FORW 371997
IGNE 371781
WASO 371610
HERP 371601
LEME 371600
PITA 371596
SCAR 371411
ETOW 371386
LYTO 371318
PERT 371308
TWOU 371119
SYOU 371065
CCOR 370873
ENHE 370806
UETO 370665
EINA 370626
YCON 370592
ROOM 370482
NDWH 370206
OVEM 370123
NDWI 370008
TESA 369961
ONAS 369902
TERF 369878
CESA 369597
TEDW 369567
SCEN 369499
SSAI 369354
OURE 369316
ONDI 369263
HISD 369210
RTAI 368447
RHIS 368427
TORA 368380
HEAN 368332
LLYA 368321
SETT 368281
RCON 367930
OMER 367592
RACK 367585
WASP 366930
ORTU 366644
NGLI 366513
BODY 366373
ASAS 366178
EAMS 366161
REDE 366107
RAFT 366052
NTAT 365984
GHTI 365848
REAK 365266
NGSA 365085
ISST 365028
ORAL 364188
DATT 364161
ODAY 364087
IGIN 364082
TOME 363989
EXAM 363558
RIGI 363498
ROTH 363468
TBAL 363434
ERAS 363390
ORDS 363275
GRES 363107
EDHE 362711
ANCH 362653
HERF 362612
TOFF 362503
NEST 362478
ENOU 362215
TERB 361951
IMIN 361870
IMET 361839
UART 361827
ACKT 361765
EATU 361650
AINA 361606
MANC 361172
HATE 361154
HINT 361054
ERSS 360542